@<TRIPOS>MOLECULE
LIG
   69    72     1     0     0
SMALL
No Charge or Current Charge


@<TRIPOS>ATOM
      1 C1           6.3160     9.5360    -0.5260 c1         1 LIG        0.3250667486
      2 C2           5.5600     9.4470    -1.7160 c2         1 LIG       -0.2221478783
      3 H3           4.4840     9.2210    -1.6550 ha         1 LIG        0.1333100879
      4 C4           6.1390     9.6370    -2.9830 c2         1 LIG       -0.0613975936
      5 C5           7.5080     9.9260    -3.1080 c2         1 LIG       -0.1663190682
      6 H6           7.9620    10.0830    -4.0940 ha         1 LIG        0.1368814102
      7 C7           8.2810    10.0060    -1.9380 c2         1 LIG       -0.0355241227
      8 C8           7.6930     9.8060    -0.6760 c2         1 LIG       -0.2545121042
      9 H9           8.3350     9.8610     0.2180 ha         1 LIG        0.1409441171
     10 C10          5.2860     9.4740    -4.2150 c3         1 LIG        0.5414359170
     11 C11          9.7430    10.3610    -2.0180 c3         1 LIG        0.5138401211
     12 F12          4.0510    10.0210    -4.0540 f          1 LIG       -0.1928647153
     13 F13          5.8400    10.0500    -5.3130 f          1 LIG       -0.1809981803
     14 F14          5.0880     8.1600    -4.5200 f          1 LIG       -0.1941518744
     15 F15          9.9630    11.6630    -1.6760 f          1 LIG       -0.1912074874
     16 F16         10.2560    10.1930    -3.2630 f          1 LIG       -0.1753874206
     17 F17         10.4960     9.6110    -1.1690 f          1 LIG       -0.1830748361
     18 C18          5.8500     7.5680     1.0460 c1         2 LIG        0.2596792988
     19 C19          4.8970     6.6700     0.5220 c2         2 LIG       -0.2095234745
     20 H20          3.9570     7.0630     0.1040 ha         2 LIG        0.1363935442
     21 C21          5.1080     5.2780     0.5160 c2         2 LIG       -0.0385284181
     22 C22          6.2930     4.7330     1.0310 c2         2 LIG       -0.1868552492
     23 H23          6.4570     3.6470     1.0290 ha         2 LIG        0.1488030561
     24 C24          7.2630     5.6110     1.5460 c2         2 LIG       -0.0635902532
     25 C25          7.0430     6.9980     1.5480 c2         2 LIG       -0.1722751826
     26 H26          7.8300     7.6540     1.9490 ha         2 LIG        0.1166166377
     27 C27          4.0610     4.3830    -0.0960 c3         2 LIG        0.5158358157
     28 C28          8.5230     5.0340     2.1380 c3         2 LIG        0.5213244758
     29 F29          2.8040     4.7460     0.2770 f          2 LIG       -0.1868388829
     30 F30          4.0860     4.4350    -1.4580 f          2 LIG       -0.1895856539
     31 F31          4.2200     3.0800     0.2490 f          2 LIG       -0.1755264880
     32 F32          9.0400     4.0410     1.3650 f          2 LIG       -0.1847644537
     33 F33          8.2980     4.4850     3.3670 f          2 LIG       -0.1920334517
     34 F34          9.4970     5.9640     2.2990 f          2 LIG       -0.1748311331
     35 C35          6.3800    10.0020     2.1580 c1         3 LIG        0.2905653232
     36 C36          6.4430     9.4720     3.4650 c2         3 LIG       -0.2021684724
     37 H37          6.0600     8.4580     3.6570 ha         3 LIG        0.1322967685
     38 C38          6.9760    10.2060     4.5410 c2         3 LIG       -0.0715199699
     39 C39          7.4600    11.5090     4.3480 c2         3 LIG       -0.1532328492
     40 H40          7.8750    12.0850     5.1860 ha         3 LIG        0.1396191703
     41 C41          7.3880    12.0630     3.0590 c2         3 LIG       -0.0756520330
     42 C42          6.8540    11.3210     1.9900 c2         3 LIG       -0.2032864622
     43 H43          6.7990    11.7940     0.9980 ha         3 LIG        0.1339641591
     44 C44          7.0720     9.5570     5.8980 c3         3 LIG        0.5335656195
     45 C45          7.9440    13.4400     2.8020 c3         3 LIG        0.5360801508
     46 F46          5.9630     8.8290     6.1950 f          3 LIG       -0.1869265407
     47 F47          8.1280     8.6970     5.9700 f          3 LIG       -0.1941118585
     48 F48          7.2370    10.4610     6.8980 f          3 LIG       -0.1806198406
     49 F49          9.2360    13.3870     2.3650 f          3 LIG       -0.1924970355
     50 F50          7.9440    14.2170     3.9160 f          3 LIG       -0.1838063389
     51 F51          7.2430    14.1060     1.8480 f          3 LIG       -0.1853712944
     52 C52          4.0920     9.6510     1.0440 c1         4 LIG        0.2875366192
     53 C53          3.1770     8.9740     1.8760 c2         4 LIG       -0.2550973459
     54 H54          3.5020     8.0710     2.4160 ha         4 LIG        0.1357903145
     55 C55          1.8510     9.4190     2.0430 c2         4 LIG        0.0061773826
     56 C56          1.3970    10.5740     1.3910 c2         4 LIG       -0.2071273621
     57 H57          0.3610    10.9180     1.5170 ha         4 LIG        0.1505672172
     58 C58          2.3020    11.2800     0.5780 c2         4 LIG       -0.0518656023
     59 C59          3.6190    10.8250     0.4110 c2         4 LIG       -0.1934100131
     60 H60          4.2990    11.4020    -0.2320 ha         4 LIG        0.1151905026
     61 C61          0.9100     8.6020     2.8910 c3         4 LIG        0.4804806668
     62 C62          1.8360    12.5540    -0.0810 c3         4 LIG        0.5436929360
     63 F63          1.4820     8.2280     4.0670 f          4 LIG       -0.1755679239
     64 F64         -0.2330     9.2670     3.1960 f          4 LIG       -0.1691084783
     65 F65          0.5400     7.4510     2.2620 f          4 LIG       -0.1820500334
     66 F66          1.6890    13.5640     0.8240 f          4 LIG       -0.1969880721
     67 F67          0.6240    12.4000    -0.6810 f          4 LIG       -0.1916078006
     68 F68          2.6970    12.9990    -1.0290 f          4 LIG       -0.1799792898
     69 B68          5.6580     9.1900     0.9330 B          5 LIG       -0.7117255218
@<TRIPOS>BOND
     1     1     2 1   
     2     1     8 1   
     3     2     3 1   
     4     2     4 1   
     5     4     5 1   
     6     4    10 1   
     7     5     6 1   
     8     5     7 1   
     9     7     8 1   
    10     7    11 1   
    11     8     9 1   
    12    10    12 1   
    13    10    13 1   
    14    10    14 1   
    15    11    15 1   
    16    11    16 1   
    17    11    17 1   
    18    18    19 1   
    19    18    25 1   
    20    19    20 1   
    21    19    21 1   
    22    21    22 1   
    23    21    27 1   
    24    22    23 1   
    25    22    24 1   
    26    24    25 1   
    27    24    28 1   
    28    25    26 1   
    29    27    29 1   
    30    27    30 1   
    31    27    31 1   
    32    28    32 1   
    33    28    33 1   
    34    28    34 1   
    35    35    36 1   
    36    35    42 1   
    37    36    37 1   
    38    36    38 1   
    39    38    39 1   
    40    38    44 1   
    41    39    40 1   
    42    39    41 1   
    43    41    42 1   
    44    41    45 1   
    45    42    43 1   
    46    44    46 1   
    47    44    47 1   
    48    44    48 1   
    49    45    49 1   
    50    45    50 1   
    51    45    51 1   
    52    52    53 1   
    53    52    59 1   
    54    53    54 1   
    55    53    55 1   
    56    55    56 1   
    57    55    61 1   
    58    56    57 1   
    59    56    58 1   
    60    58    59 1   
    61    58    62 1   
    62    59    60 1   
    63    61    63 1   
    64    61    64 1   
    65    61    65 1   
    66    62    66 1   
    67    62    67 1   
    68    62    68 1   
    69     1    69 1   
    70    18    69 1   
    71    35    69 1   
    72    52    69 1   
@<TRIPOS>SUBSTRUCTURE
     1 LIG           1 TEMP              0 ****  ****    0 ROOT
