@<TRIPOS>MOLECULE
BF4
    5     4     1     0     0
SMALL
RESP Charge


@<TRIPOS>ATOM
      1 B0          -0.3700    -0.1030    -1.0730 B          1 BF4       0.6839420
      2 F1           0.5580     0.2340    -0.0590 f          1 BF4      -0.4209855
      3 F2          -0.8000     1.0740    -1.7310 f          1 BF4      -0.4209855
      4 F3           0.2460    -0.9690    -2.0090 f          1 BF4      -0.4209855
      5 F4          -1.4850    -0.7540    -0.4920 f          1 BF4      -0.4209855
@<TRIPOS>BOND
     1     1     2 1   
     2     1     3 1   
     3     1     4 1   
     4     1     5 1   
@<TRIPOS>SUBSTRUCTURE
     1 BF4         1 TEMP              0 ****  ****    0 ROOT
