@<TRIPOS>MOLECULE
LIG
   45    48     1     0     0
SMALL
No Charge or Current Charge


@<TRIPOS>ATOM
      1 B0           5.6640     9.1890     0.9220 B          1 LIG     -1.1222730793 
      2 C2           6.3290     9.5370    -0.5410 c1         2 LIG      0.3610693259
      3 C3           5.5880     9.4100    -1.7430 c2         2 LIG     -0.1772791108
      4 H4           4.5140     9.1670    -1.6810 ha         2 LIG      0.0966983557
      5 C5           6.1710     9.5730    -3.0120 c2         2 LIG     -0.1858426048
      6 C6           7.5410     9.8720    -3.1260 c2         2 LIG     -0.1488930656
      7 H7           8.0050    10.0030    -4.1170 ha         2 LIG      0.1129000257
      8 C8           8.3100     9.9970    -1.9540 c2         2 LIG     -0.1896243119
      9 C9           7.7070     9.8300    -0.6940 c2         2 LIG     -0.1721706693
     10 H10          8.3340     9.9300     0.2080 ha         2 LIG      0.0924039472
     11 H11          5.5540     9.4650    -3.9200 ha         2 LIG      0.1199662742
     12 H12          9.3860    10.2250    -2.0240 ha         2 LIG      0.1215052564
     13 C13          5.8550     7.5600     1.0310 c1         3 LIG      0.3567324288
     14 C14          4.8850     6.6530     0.5340 c2         3 LIG     -0.1681172202
     15 H15          3.9320     7.0520     0.1510 ha         3 LIG      0.0926421555
     16 C16          5.0950     5.2620     0.5080 c2         3 LIG     -0.1919295613
     17 C17          6.3040     4.7200     0.9820 c2         3 LIG     -0.1468012364
     18 H18          6.4740     3.6320     0.9670 ha         3 LIG      0.1127129462
     19 C19          7.2930     5.5930     1.4730 c2         3 LIG     -0.1899903387
     20 C20          7.0640     6.9800     1.4910 c2         3 LIG     -0.1710958082
     21 H21          7.8590     7.6420     1.8750 ha         3 LIG      0.0947119901
     22 H22          8.2490     5.1880     1.8430 ha         3 LIG      0.1210100066
     23 H23          4.3100     4.5940     0.1130 ha         3 LIG      0.1212838738
     24 C24          6.3780    10.0000     2.1620 c1         4 LIG      0.3575224955
     25 C25          6.4560     9.4590     3.4690 c2         4 LIG     -0.1726491535
     26 H26          6.1180     8.4220     3.6370 ha         4 LIG      0.0934729686
     27 C27          6.9430    10.1950     4.5650 c2         4 LIG     -0.1894419466
     28 C28          7.3760    11.5210     4.3880 c2         4 LIG     -0.1470831265
     29 H29          7.7610    12.1040     5.2410 ha         4 LIG      0.1122359875
     30 C30          7.3060    12.0940     3.1050 c2         4 LIG     -0.1892940794
     31 C31          6.8150    11.3420     2.0220 c2         4 LIG     -0.1697257668
     32 H32          6.7620    11.8180     1.0290 ha         4 LIG      0.0939570122
     33 H33          7.6350    13.1350     2.9470 ha         4 LIG      0.1205077850
     34 H34          6.9850     9.7310     5.5650 ha         4 LIG      0.1211630702
     35 C35          4.0940     9.6600     1.0380 c1         5 LIG      0.3560091685
     36 C36          3.1840     9.0170     1.9140 c2         5 LIG     -0.1674469268
     37 H37          3.5170     8.1170     2.4590 ha         5 LIG      0.0929323288
     38 C38          1.8730     9.4840     2.1200 c2         5 LIG     -0.1904375895
     39 C39          1.4200    10.6340     1.4480 c2         5 LIG     -0.1477871001
     40 H40          0.3940    11.0050     1.6030 ha         5 LIG      0.1125335223
     41 C41          2.3000    11.3050     0.5790 c2         5 LIG     -0.1881126780
     42 C42          3.6070    10.8200     0.3860 c2         5 LIG     -0.1737921158
     43 H43          4.2790    11.3680    -0.2960 ha         5 LIG      0.0940038929
     44 H44          1.9650    12.2120     0.0500 ha         5 LIG      0.1207130975
     45 H45          1.2000     8.9490     2.8110 ha         5 LIG      0.1210995744
@<TRIPOS>BOND
     1     1     2 1
     2     2     3 ar
     3     2     9 ar
     4     3     4 1
     5     3     5 ar
     6     5     6 ar
     7     5    11 1
     8     6     7 1
     9     6     8 ar
    10     8     9 ar
    11     8    12 1
    12     9    10 1
    13    13    14 1
    14    13    20 2
    15    14    15 1
    16    14    16 2
    17    16    17 1
    18    16    23 1
    19    17    18 1
    20    17    19 2
    21    19    20 1
    22    19    22 1
    23    20    21 1
    24    24    25 1
    25    24    31 2
    26    25    26 1
    27    25    27 2
    28    27    28 1
    29    27    34 1
    30    28    29 1
    31    28    30 2
    32    30    31 1
    33    30    33 1
    34    31    32 1
    35    35    36 1
    36    35    42 2
    37    36    37 1
    38    36    38 2
    39    38    39 1
    40    38    45 1
    41    39    40 1
    42    39    41 2
    43    41    42 1
    44    41    44 1
    45    42    43 1
    46    1     13 1
    47    1     24 1
    48    1     35 1

@<TRIPOS>SUBSTRUCTURE
     1 LIG           1 TEMP              0 ****  ****    0 ROOT
