@<TRIPOS>MOLECULE
CLO
    5     4     1     0     0
SMALL
RESP Charge


@<TRIPOS>ATOM
      1 CL0         -0.3700    -0.1040    -1.0730 cl         1 CLO       1.097562111
      2 O1           0.6210     0.2570     0.0090 o          1 CLO      -0.524390528
      3 O2          -0.8280     1.1530    -1.7750 o          1 CLO      -0.524390528
      4 O3           0.2870    -1.0270    -2.0720 o          1 CLO      -0.524390528
      5 O4          -1.5600    -0.7980    -0.4540 o          1 CLO      -0.524390528
@<TRIPOS>BOND
     1     1     2 1   
     2     1     3 1   
     3     1     4 1   
     4     1     5 1   
@<TRIPOS>SUBSTRUCTURE
     1 CLO           1 TEMP              0 ****  ****    0 ROOT
