@<TRIPOS>MOLECULE
OTF
    8     7     1     0     0
SMALL
RESP Charge


@<TRIPOS>ATOM
      1 C1         -3.8810     1.5030    -0.1170   c3    1  OTF  0.209651
      2 S2         -2.0390     1.5930     0.1880   s6    1  OTF  1.132803
      3 F3         -4.6230     1.9570     0.9430   f     1  OTF -0.147532
      4 F4         -4.3220     0.2270    -0.3600   f     1  OTF -0.147195
      5 F5         -4.2820     2.2470    -1.1980   f     1  OTF -0.147084
      6 O6         -1.7650     2.9950     0.5300   o     1  OTF -0.633673
      7 O7         -1.4100     1.1730    -1.0720   o     1  OTF -0.633512
      8 O8         -1.7780     0.6670     1.2990   o     1  OTF -0.633459
@<TRIPOS>BOND
     1     1     2 1
     2     1     3 1
     3     1     4 1
     4     1     5 1
     5     2     6 1
     6     2     7 1
     7     2     8 1
@<TRIPOS>SUBSTRUCTURE
     1 OTF         1 TEMP              0 ****  ****    0 ROOT
