@<TRIPOS>MOLECULE
PF6
    7     6     1     0     0
SMALL
No Charge or Current Charge


@<TRIPOS>ATOM
      1 P8          -0.8490    -0.0000    -0.1180 P          1 PF6       0.940442528
      2 F0          -0.8490     0.0000    -1.7690 f1         1 PF6      -0.323407088
      3 F1          -0.8490     0.0000     1.5330 f1         1 PF6      -0.323407088
      4 F2          -0.8490     1.6510    -0.1180 f2         1 PF6      -0.323407088
      5 F3          -0.8490    -1.6510    -0.1180 f2         1 PF6      -0.323407088
      6 F4          -2.5000    -0.0000    -0.1180 f3         1 PF6      -0.323407088
      7 F5           0.8020    -0.0000    -0.1180 f3         1 PF6      -0.323407088
@<TRIPOS>BOND
1 1 2 1
2 1 3 1
3 1 4 1
4 1 5 1
5 1 6 1
6 1 7 1
@<TRIPOS>SUBSTRUCTURE
     1 PF6         1 TEMP              0 ****  ****    0 ROOT
