@<TRIPOS>MOLECULE
SCF
    7     6     1     0     0
SMALL
RESP Charge


@<TRIPOS>ATOM
      1 SC          -0.8490     0.0000    -0.1180 SC         1 SCF       1.04424511
      2 F0          -0.8490    -0.0000    -2.1520 f1         1 SCF      -0.674040852
      3 F1          -0.8490     0.0000     1.9150 f1         1 SCF      -0.674040852
      4 F2          -0.8490     2.0330    -0.1180 f2         1 SCF      -0.674040852
      5 F3          -0.8490    -2.0330    -0.1180 f2         1 SCF      -0.674040852
      6 F4          -2.8820    -0.0000    -0.1180 f3         1 SCF      -0.674040852
      7 F5           1.1850    -0.0000    -0.1180 f3         1 SCF      -0.674040852
@<TRIPOS>BOND
1 1 2 1
2 1 3 1
3 1 4 1
4 1 5 1
5 1 6 1
6 1 7 1
@<TRIPOS>SUBSTRUCTURE
     1 SCF         1 TEMP              0 ****  ****    0 ROOT
