@<TRIPOS>MOLECULE
ACN
    6     5     1     0     0
SMALL
bcc


@<TRIPOS>ATOM
      1 C           -5.9400     0.9170     0.1910 c1         1 ACN       0.4902624314
      2 C1          -4.4930     0.8640     0.0450 c3         1 ACN      -0.4091677625
      3 N1          -7.0900     0.9580     0.3070 n1         1 ACN      -0.6043924224
      4 H1          -4.2160     0.0020    -0.5590 hc         1 ACN       0.1744325845
      5 H2          -4.0280     0.7800     1.0250 hc         1 ACN       0.1744325845
      6 H3          -4.1400     1.7710    -0.4430 hc         1 ACN       0.1744325845
@<TRIPOS>BOND
     1     1     2 1   
     2     1     3 3   
     3     2     4 1   
     4     2     5 1   
     5     2     6 1   
@<TRIPOS>SUBSTRUCTURE
     1 ACN         1 TEMP              0 ****  ****    0 ROOT
