@<TRIPOS>MOLECULE
ACT
   10     9     1     0     0
SMALL
bcc


@<TRIPOS>ATOM
      1 C           -7.5830    -1.8170     0.0420 c3         1 ACT      -0.5167106291
      2 C1          -6.0960    -1.8150     0.2810 c          1 ACT       0.8156595385
      3 H           -8.0430    -1.0010     0.6030 hc         1 ACT       0.1456335468
      4 H1          -8.0200    -2.7450     0.4140 hc         1 ACT       0.1456335468
      5 H2          -7.7980    -1.7030    -1.0170 hc         1 ACT       0.1456335468
      6 C2          -5.6420    -2.0500     1.6970 c3         1 ACT      -0.5125902274
      7 H3          -6.1090    -1.3250     2.3650 hc         1 ACT       0.1445967762
      8 H4          -4.5600    -1.9830     1.7670 hc         1 ACT       0.1445967762
      9 H5          -5.9720    -3.0390     2.0220 hc         1 ACT       0.1445967762
     10 O           -5.3010    -1.6290    -0.6260 o          1 ACT      -0.6570496510
@<TRIPOS>BOND
     1     1     2 1   
     2     1     3 1   
     3     1     4 1   
     4     1     5 1   
     5     2     6 1   
     6     2    10 2   
     7     6     7 1   
     8     6     8 1   
     9     6     9 1   
@<TRIPOS>SUBSTRUCTURE
     1 ACT         1 TEMP              0 ****  ****    0 ROOT
