@<TRIPOS>MOLECULE
UNL
   12    12     1     0     0
SMALL
bcc


@<TRIPOS>ATOM
      1 C           -7.9950    -1.8540    -1.9270 ca         1 UNL      -0.1331770857
      2 C1          -6.6090    -1.7970    -2.0630 ca         1 UNL      -0.1360915084
      3 C2          -5.8210    -1.3720    -0.9960 ca         1 UNL      -0.1315539162
      4 H           -6.1450    -2.0830    -2.9980 ha         1 UNL       0.1341448011
      5 C3          -6.4190    -1.0030     0.2080 ca         1 UNL      -0.1322271256
      6 H1          -4.7450    -1.3270    -1.1020 ha         1 UNL       0.1328410906
      7 C4          -7.8040    -1.0590     0.3440 ca         1 UNL      -0.1355547449
      8 H2          -5.8070    -0.6720     1.0370 ha         1 UNL       0.1328243600
      9 H3          -8.2680    -0.7720     1.2780 ha         1 UNL       0.1337486505
     10 C5          -8.5920    -1.4850    -0.7240 ca         1 UNL      -0.1307180282
     11 H4          -9.6690    -1.5280    -0.6180 ha         1 UNL       0.1323958894
     12 H5          -8.6070    -2.1840    -2.7560 ha         1 UNL       0.1333676173
@<TRIPOS>BOND
     1     1     2 ar  
     2     1    10 ar  
     3     1    12 1   
     4     2     3 ar  
     5     2     4 1   
     6     3     5 ar  
     7     3     6 1   
     8     5     7 ar  
     9     5     8 1   
    10     7     9 1   
    11     7    10 ar  
    12    10    11 1   
@<TRIPOS>SUBSTRUCTURE
     1 UNL         1 TEMP              0 ****  ****    0 ROOT
