@<TRIPOS>MOLECULE
UNL
    5     4     1     0     0
SMALL
bcc


@<TRIPOS>ATOM
      1 C           -5.9740    -1.3870    -1.6080 c3         1 CL4      -0.4336925562
      2 Cl          -4.1990    -1.3870    -1.6080 cl         1 CL4       0.1085666294
      3 Cl1         -6.5660    -0.0420    -2.6030 cl         1 CL4       0.1083293231
      4 Cl2         -6.5660    -1.1980     0.0550 cl         1 CL4       0.1083919737
      5 Cl3         -6.5660    -2.9220    -2.2750 cl         1 CL4       0.1084046300
@<TRIPOS>BOND
     1     1     2 1   
     2     1     3 1   
     3     1     4 1   
     4     1     5 1   
@<TRIPOS>SUBSTRUCTURE
     1 UNL         1 TEMP              0 ****  ****    0 ROOT
