@<TRIPOS>MOLECULE
DCM
    5     4     1     0     0
SMALL
bcc


@<TRIPOS>ATOM
      1 C           -6.0650    -1.2700    -1.5570 c3         1 DCM      -0.1949651157
      2 Cl          -4.2860    -1.2330    -1.5410 cl         1 DCM      -0.1210486176
      3 H           -6.4120    -0.4610    -2.1850 h2         1 DCM       0.2186241899
      4 H1          -6.4120    -1.1780    -0.5360 h2         1 DCM       0.2186241899
      5 Cl1         -6.6960    -2.7960    -2.2200 cl         1 DCM      -0.1212346465
@<TRIPOS>BOND
     1     1     2 1   
     2     1     3 1   
     3     1     4 1   
     4     1     5 1   
@<TRIPOS>SUBSTRUCTURE
     1 DCM         1 TEMP              0 ****  ****    0 ROOT
