@<TRIPOS>MOLECULE
DMF
   12    11     1     0     0
SMALL
bcc


@<TRIPOS>ATOM
      1 C           -5.5360    -5.1340    -1.1970 c          1 DMF       0.3522812722
      2 H           -5.4860    -6.2300    -1.1370 h5         1 DMF       0.0770914305
      3 O           -5.7060    -4.5530    -2.2680 o          1 DMF      -0.6368709504
      4 N           -5.3930    -4.5480     0.0050 n          1 DMF       0.0808042700
      5 C1          -5.4300    -3.1040     0.1510 c3         1 DMF      -0.1292302995
      6 C2          -5.2000    -5.3320     1.2100 c3         1 DMF      -0.4962301704
      7 H1          -5.1950    -6.3910     0.9600 h1         1 DMF       0.1692366593
      8 H2          -6.0040    -5.1400     1.9220 h1         1 DMF       0.1692366593
      9 H3          -4.2500    -5.0750     1.6820 h1         1 DMF       0.1692366593
     10 H4          -5.5830    -2.6550    -0.8250 h1         1 DMF       0.0814814898
     11 H5          -4.4900    -2.7460     0.5750 h1         1 DMF       0.0814814898
     12 H6          -6.2440    -2.8160     0.8190 h1         1 DMF       0.0814814898
@<TRIPOS>BOND
     1     1     2 1   
     2     1     3 2   
     3     1     4 1   
     4     4     5 1   
     5     4     6 1   
     6     5    10 1   
     7     5    11 1   
     8     5    12 1   
     9     6     7 1   
    10     6     8 1   
    11     6     9 1   
@<TRIPOS>SUBSTRUCTURE
     1 DMF         1 TEMP              0 ****  ****    0 ROOT
