@<TRIPOS>MOLECULE
DMS
   10     9     1     0     0
SMALL
bcc


@<TRIPOS>ATOM
      1 S           -6.2580    -4.6400    -0.0380 s4         1 DMS       0.3254623397
      2 C           -5.5940    -2.9800     0.1720 c3         1 DMS      -0.3786438895
      3 C1          -5.3460    -5.4160     1.3060 c3         1 DMS      -0.3752229140
      4 H           -5.5870    -6.4770     1.2810 h1         1 DMS       0.1665943240
      5 H1          -5.6700    -4.9830     2.2520 h1         1 DMS       0.1665943240
      6 H2          -4.2800    -5.2620     1.1480 h1         1 DMS       0.1665943240
      7 H3          -6.0070    -2.3690    -0.6280 h1         1 DMS       0.1674727475
      8 H4          -4.5080    -3.0200     0.1020 h1         1 DMS       0.1674727475
      9 H5          -5.9120    -2.5910     1.1390 h1         1 DMS       0.1674727475
     10 O           -5.6770    -5.1780    -1.3180 o          1 DMS      -0.5737967505
@<TRIPOS>BOND
     1     1     2 1   
     2     1     3 1   
     3     1    10 2   
     4     2     7 1   
     5     2     8 1   
     6     2     9 1   
     7     3     4 1   
     8     3     5 1   
     9     3     6 1   
@<TRIPOS>SUBSTRUCTURE
     1 DMS         1 TEMP              0 ****  ****    0 ROOT
