@<TRIPOS>MOLECULE
ETL
    9     8     1     0     0
SMALL
bcc


@<TRIPOS>ATOM
      1 C           -5.8350     2.8680    -0.0530 c3         1 ETL      -0.3206373946
      2 C1          -4.3190     2.9190    -0.0520 c3         1 ETL       0.5106767438
      3 H           -6.1910     2.2020    -0.8410 hc         1 ETL       0.0743686904
      4 H1          -6.2540     3.8600    -0.2340 hc         1 ETL       0.0743686904
      5 H2          -6.2090     2.5030     0.9040 hc         1 ETL       0.0743686904
      6 H3          -3.9510     3.2580    -1.0250 h1         1 ETL      -0.0428440777
      7 H4          -3.9020     1.9310     0.1360 h1         1 ETL      -0.0428440777
      8 O           -3.8000     3.7570     0.9870 oh         1 ETL      -0.7749213697
      9 H5          -4.1210     4.6530     0.8300 ho         1 ETL       0.4474641047
@<TRIPOS>BOND
     1     1     2 1   
     2     1     3 1   
     3     1     4 1   
     4     1     5 1   
     5     2     6 1   
     6     2     7 1   
     7     2     8 1   
     8     8     9 1   
@<TRIPOS>SUBSTRUCTURE
     1 ETL         1 TEMP              0 ****  ****    0 ROOT
