@<TRIPOS>MOLECULE
HEX
   20    19     1     0     0
SMALL
bcc


@<TRIPOS>ATOM
      1 C            2.2860    -6.0000     2.1690 c3         1 HEX      -0.2862311135
      2 H            3.3770    -6.0280     2.2000 hc         1 HEX       0.0570747751
      3 H1           1.9390    -6.9780     1.8320 hc         1 HEX       0.0570747751
      4 C1           1.7950    -4.8950     1.2380 c3         1 HEX       0.2930074691
      5 H2           1.9270    -5.8520     3.1890 hc         1 HEX       0.0570747751
      6 C2           2.2760    -5.0700    -0.2000 c3         1 HEX      -0.0266595638
      7 H3           2.1310    -3.9240     1.6130 hc         1 HEX      -0.0635744885
      8 H4           0.7010    -4.8670     1.2490 hc         1 HEX      -0.0635744885
      9 H5           3.3710    -5.1000    -0.2110 hc         1 HEX      -0.0122370908
     10 C3           1.7930    -3.9710    -1.1410 c3         1 HEX      -0.0246580934
     11 H6           1.9390    -6.0420    -0.5760 hc         1 HEX      -0.0122370908
     12 H7           2.1300    -2.9990    -0.7650 hc         1 HEX      -0.0129892048
     13 H8           0.6980    -3.9420    -1.1300 hc         1 HEX      -0.0129892048
     14 C4           2.2740    -4.1460    -2.5790 c3         1 HEX       0.2952540461
     15 H9           3.3680    -4.1740    -2.5900 hc         1 HEX      -0.0644694640
     16 C5           1.7830    -3.0420    -3.5110 c3         1 HEX      -0.2867390308
     17 H10          1.9380    -5.1170    -2.9540 hc         1 HEX      -0.0644694640
     18 H11          2.1300    -2.0630    -3.1730 hc         1 HEX       0.0571141524
     19 H12          0.6920    -3.0140    -3.5410 hc         1 HEX       0.0571141524
     20 H13          2.1420    -3.1890    -4.5300 hc         1 HEX       0.0571141524
@<TRIPOS>BOND
     1     1     2 1   
     2     1     3 1   
     3     1     4 1   
     4     1     5 1   
     5     4     6 1   
     6     4     7 1   
     7     4     8 1   
     8     6     9 1   
     9     6    10 1   
    10     6    11 1   
    11    10    12 1   
    12    10    13 1   
    13    10    14 1   
    14    14    15 1   
    15    14    16 1   
    16    14    17 1   
    17    16    18 1   
    18    16    19 1   
    19    16    20 1   
@<TRIPOS>SUBSTRUCTURE
     1 HEX         1 TEMP              0 ****  ****    0 ROOT
