@<TRIPOS>MOLECULE
TOL
   15    15     1     0     0
SMALL
bcc


@<TRIPOS>ATOM
      1 C           -6.6220     0.5970    -0.0430 ca         1 TOL      -0.1035900868
      2 C1          -5.3250     0.4210    -0.5180 ca         1 TOL      -0.1921941779
      3 C2          -4.3260     1.3090    -0.1260 ca         1 TOL      -0.1018265219
      4 H           -5.0960    -0.3970    -1.1890 ha         1 TOL       0.1437571543
      5 H1          -3.3150     1.1850    -0.4930 ha         1 TOL       0.1372511387
      6 C3          -4.6240     2.3620     0.7350 ca         1 TOL      -0.3159126295
      7 C4          -5.9210     2.5480     1.2230 ca         1 TOL       0.3374294485
      8 H2          -3.8410     3.0500     1.0310 ha         1 TOL       0.1723530172
      9 C5          -6.9140     1.6520     0.8180 ca         1 TOL      -0.3161278459
     10 C6          -6.2310     3.6690     2.1780 c3         1 TOL      -0.4167448698
     11 H3          -7.9270     1.7840     1.1790 ha         1 TOL       0.1708747103
     12 H4          -7.4070    -0.0840    -0.3450 ha         1 TOL       0.1383713242
     13 H5          -5.6500     4.5600     1.9430 hc         1 TOL       0.1154531129
     14 H6          -5.9890     3.3820     3.2040 hc         1 TOL       0.1154531129
     15 H7          -7.2890     3.9290     2.1500 hc         1 TOL       0.1154531129
@<TRIPOS>BOND
     1     1     2 ar  
     2     1     9 ar  
     3     1    12 1   
     4     2     3 ar  
     5     2     4 1   
     6     3     5 1   
     7     3     6 ar  
     8     6     7 ar  
     9     6     8 1   
    10     7     9 ar  
    11     7    10 1   
    12     9    11 1   
    13    10    13 1   
    14    10    14 1   
    15    10    15 1   
@<TRIPOS>SUBSTRUCTURE
     1 TOL         1 TEMP              0 ****  ****    0 ROOT
