@<TRIPOS>MOLECULE
CHX
   18    18     1     0     0
SMALL
bcc


@<TRIPOS>ATOM
      1 C           -7.2970    -1.9910    -1.7730 c3         1 CHX       0.0553389899
      2 C1          -6.0150    -1.1730    -1.9290 c3         1 CHX       0.0567421609
      3 H           -6.1980    -0.1500    -1.5820 hc         1 CHX      -0.0281809003
      4 H1          -5.7370    -1.1020    -2.9840 hc         1 CHX      -0.0281809003
      5 C2          -4.8660    -1.7770    -1.1190 c3         1 CHX       0.0556358400
      6 C3          -5.2480    -1.9380     0.3540 c3         1 CHX       0.0557503908
      7 H2          -3.9710    -1.1570    -1.2110 hc         1 CHX      -0.0280201389
      8 H3          -4.6140    -2.7590    -1.5330 hc         1 CHX      -0.0280201389
      9 H4          -5.4000    -0.9470     0.7950 hc         1 CHX      -0.0279114200
     10 H5          -4.4310    -2.4070     0.9070 hc         1 CHX      -0.0279114200
     11 C4          -6.5310    -2.7570     0.5100 c3         1 CHX       0.0581631313
     12 C5          -7.6800    -2.1520    -0.3010 c3         1 CHX       0.0557575329
     13 H6          -6.8090    -2.8270     1.5640 hc         1 CHX      -0.0287193618
     14 H7          -6.3480    -3.7790     0.1630 hc         1 CHX      -0.0287193618
     15 H8          -7.9320    -1.1700     0.1130 hc         1 CHX      -0.0280715707
     16 H9          -8.5750    -2.7730    -0.2080 hc         1 CHX      -0.0280715707
     17 H10         -7.1460    -2.9830    -2.2150 hc         1 CHX      -0.0277906312
     18 H11         -8.1150    -1.5220    -2.3270 hc         1 CHX      -0.0277906312
@<TRIPOS>BOND
     1     1     2 1   
     2     1    12 1   
     3     1    17 1   
     4     1    18 1   
     5     2     3 1   
     6     2     4 1   
     7     2     5 1   
     8     5     6 1   
     9     5     7 1   
    10     5     8 1   
    11     6     9 1   
    12     6    10 1   
    13     6    11 1   
    14    11    12 1   
    15    11    13 1   
    16    11    14 1   
    17    12    15 1   
    18    12    16 1   
@<TRIPOS>SUBSTRUCTURE
     1 CHX         1 TEMP              0 ****  ****    0 ROOT
