@<TRIPOS>MOLECULE
CL3
    5     4     1     0     0
SMALL
bcc


@<TRIPOS>ATOM
      1 C           -6.0120    -1.3020    -1.6710 c3         1 CL3      -0.2873957191
      2 Cl          -4.2400    -1.2660    -1.6980 cl         1 CL3      -0.0104081737
      3 H           -6.3720    -0.4820    -2.2780 h3         1 CL3       0.3185169266
      4 Cl1         -6.6240    -1.0760    -0.0230 cl         1 CL3      -0.0104290882
      5 Cl2         -6.6230    -2.8120    -2.3690 cl         1 CL3      -0.0102839456
@<TRIPOS>BOND
     1     1     2 1   
     2     1     3 1   
     3     1     4 1   
     4     1     5 1   
@<TRIPOS>SUBSTRUCTURE
     1 CL3         1 TEMP              0 ****  ****    0 ROOT
