@<TRIPOS>MOLECULE
MTL
    6     5     1     0     0
SMALL
bcc


@<TRIPOS>ATOM
      1 H           -5.4720     2.9030    -0.0370 h1         1 MTL       0.0047136822
      2 C           -4.3800     2.9220    -0.0510 c3         1 MTL       0.2512784447
      3 H1          -4.0420     3.2450    -1.0380 h1         1 MTL       0.0047136822
      4 H2          -4.0110     1.9150     0.1310 h1         1 MTL       0.0047136822
      5 O           -3.8540     3.7510     0.9840 oh         1 MTL      -0.7068178586
      6 H3          -4.1680     4.6500     0.8330 ho         1 MTL       0.4413983673
@<TRIPOS>BOND
     1     1     2 1   
     2     2     3 1   
     3     2     4 1   
     4     2     5 1   
     5     5     6 1   
@<TRIPOS>SUBSTRUCTURE
     1 MTL         1 TEMP              0 ****  ****    0 ROOT
