@<TRIPOS>MOLECULE
NH3
    4     3     1     0     0
SMALL
bcc


@<TRIPOS>ATOM
      1 N           -6.7010    -1.5780    -1.1230 n3         1 NH3      -1.1037675936
      2 H           -5.6880    -1.6280    -1.1320 hn         1 NH3       0.3679969847
      3 H1          -7.0140    -2.2360    -0.4180 hn         1 NH3       0.3678186059
      4 H2          -7.0140    -1.9420    -2.0160 hn         1 NH3       0.3679520030
@<TRIPOS>BOND
     1     1     2 1   
     2     1     3 1   
     3     1     4 1   
@<TRIPOS>SUBSTRUCTURE
     1 NH3         1 TEMP              0 ****  ****    0 ROOT
