@<TRIPOS>MOLECULE
OCT
   27    26     1     0     0
SMALL
bcc


@<TRIPOS>ATOM
      1 C            2.2740    -6.1010     2.3610 c3         1 OCT      -0.2897696493
      2 H            3.3660    -6.1260     2.3920 hc         1 OCT       0.0593846131
      3 H1           1.9300    -7.0760     2.0100 hc         1 OCT       0.0593846131
      4 C1           1.7810    -4.9860     1.4430 c3         1 OCT       0.2645514103
      5 H2           1.9140    -5.9670     3.3820 hc         1 OCT       0.0593846131
      6 C2           2.2640    -5.1410     0.0040 c3         1 OCT      -0.0129510424
      7 H3           2.1150    -4.0180     1.8310 hc         1 OCT      -0.0547326339
      8 H4           0.6870    -4.9610     1.4540 hc         1 OCT      -0.0547326339
      9 H5           3.3590    -5.1690    -0.0070 hc         1 OCT      -0.0113329703
     10 C3           1.7800    -4.0290    -0.9230 c3         1 OCT      -0.0178209976
     11 H6           1.9280    -6.1080    -0.3860 hc         1 OCT      -0.0113329703
     12 H7           2.1190    -3.0630    -0.5350 hc         1 OCT      -0.0185950306
     13 H8           0.6860    -4.0000    -0.9110 hc         1 OCT      -0.0185950306
     14 C4           2.2620    -4.1890    -2.3630 c3         1 OCT       0.2450820604
     15 H9           3.3570    -4.2190    -2.3770 hc         1 OCT      -0.0705458933
     16 C5           1.7790    -3.0760    -3.2900 c3         1 OCT       0.0194631097
     17 H10          1.9220    -5.1540    -2.7520 hc         1 OCT      -0.0705458933
     18 H11          2.1220    -2.1100    -2.9030 hc         1 OCT      -0.0333503167
     19 H12          0.6850    -3.0440    -3.2740 hc         1 OCT      -0.0333503167
     20 C6           2.2580    -3.2450    -4.7300 c3         1 OCT      -0.0280936451
     21 H13          3.3530    -3.2690    -4.7520 hc         1 OCT      -0.0018068457
     22 C7           1.7720    -2.1290    -5.6390 c3         1 OCT       0.3519664671
     23 H14          1.9080    -4.2010    -5.1280 hc         1 OCT      -0.0018068457
     24 H15          2.1160    -1.1600    -5.2620 h1         1 OCT      -0.0083488294
     25 H16          0.6820    -2.1070    -5.6630 h1         1 OCT      -0.0083488294
     26 O            2.1800    -2.3020    -7.0000 oh         1 OCT      -0.7505087820
     27 H17          3.1440    -2.2970    -7.0210 ho         1 OCT       0.4373522695
@<TRIPOS>BOND
     1     1     2 1   
     2     1     3 1   
     3     1     4 1   
     4     1     5 1   
     5     4     6 1   
     6     4     7 1   
     7     4     8 1   
     8     6     9 1   
     9     6    10 1   
    10     6    11 1   
    11    10    12 1   
    12    10    13 1   
    13    10    14 1   
    14    14    15 1   
    15    14    16 1   
    16    14    17 1   
    17    16    18 1   
    18    16    19 1   
    19    16    20 1   
    20    20    21 1   
    21    20    22 1   
    22    20    23 1   
    23    22    24 1   
    24    22    25 1   
    25    22    26 1   
    26    26    27 1   
@<TRIPOS>SUBSTRUCTURE
     1 OCT         1 TEMP              0 ****  ****    0 ROOT
