@<TRIPOS>MOLECULE
PYR
   11    11     1     0     0
SMALL
bcc


@<TRIPOS>ATOM
      1 N            4.6970    -4.6660    -5.5140 nb         1 PYR      -0.7535521394
      2 C            4.5420    -4.1120    -4.3050 ca         1 PYR       0.5132906922
      3 H            4.4910    -4.7980    -3.4670 h4         1 PYR       0.0186545037
      4 C1           4.4460    -2.7410    -4.0940 ca         1 PYR      -0.5382874668
      5 C2           4.5150    -1.8930    -5.1930 ca         1 PYR       0.2685592442
      6 H1           4.3220    -2.3550    -3.0920 ha         1 PYR       0.2040802969
      7 H2           4.4450    -0.8200    -5.0690 ha         1 PYR       0.0896705602
      8 C3           4.6760    -2.4530    -6.4560 ca         1 PYR      -0.5348940697
      9 C4           4.7610    -3.8370    -6.5630 ca         1 PYR       0.5100395268
     10 H3           4.7350    -1.8360    -7.3420 ha         1 PYR       0.2032085350
     11 H4           4.8870    -4.3020    -7.5340 h4         1 PYR       0.0192303170
@<TRIPOS>BOND
     1     1     2 ar  
     2     1     9 ar  
     3     2     3 1   
     4     2     4 ar  
     5     4     5 ar  
     6     4     6 1   
     7     5     7 1   
     8     5     8 ar  
     9     8     9 ar  
    10     8    10 1   
    11     9    11 1   
@<TRIPOS>SUBSTRUCTURE
     1 PYR         1 TEMP              0 ****  ****    0 ROOT
