@<TRIPOS>MOLECULE
THF
   13    13     1     0     0
SMALL
bcc


@<TRIPOS>ATOM
      1 C1          -3.4850     1.2710    -0.1900 c3         1 THF       0.0161052548
      2 C2          -1.9620     1.2390    -0.0540 c3         1 THF       0.0199890666
      3 H3          -3.9320     1.7640     0.6750 hc         1 THF       0.0003841173
      4 C4          -3.8230    -0.2150    -0.1880 c3         1 THF       0.2558109888
      5 H5          -3.8300     1.7740    -1.0920 hc         1 THF       0.0003841173
      6 C6          -1.7630     0.0770     0.9100 c3         1 THF       0.2534880112
      7 H7          -1.5410     2.1700     0.3250 hc         1 THF      -0.0004814479
      8 H8          -1.5010     1.0170    -1.0180 hc         1 THF      -0.0004814479
      9 O9          -2.8370    -0.8470     0.6490 os         1 THF      -0.5163566888
     10 H10         -3.7580    -0.6340    -1.1970 h1         1 THF      -0.0074196500
     11 H11         -4.8110    -0.4340     0.2180 h1         1 THF      -0.0074196500
     12 H12         -1.8270     0.4120     1.9500 h1         1 THF      -0.0070013357
     13 H13         -0.8170    -0.4460     0.7690 h1         1 THF      -0.0070013357
@<TRIPOS>BOND
     1     1     2 1   
     2     1     3 1   
     3     1     4 1   
     4     1     5 1   
     5     2     6 1   
     6     2     7 1   
     7     2     8 1   
     8     4     9 1   
     9     4    10 1   
    10     4    11 1   
    11     6     9 1   
    12     6    12 1   
    13     6    13 1   
@<TRIPOS>SUBSTRUCTURE
     1 THF         1 TEMP              0 ****  ****    0 ROOT
